@<TRIPOS>MOLECULE

46 49 1
SMALL
USER_CHARGES
@<TRIPOS>ATOM
1	C1    -5.0101     0.2059    -0.4541	C.3	1	LIG	-0.0019
2	C2    -3.6993    -0.4383    -0.1928	C.2	1	LIG	-0.0585
3	C3    -3.1059    -1.2526    -1.1768	C.2	1	LIG	-0.0766
4	C4    -1.8599    -1.8876    -0.9637	C.2	1	LIG	-0.0456
5	C5    -1.2731    -2.7101    -2.0592	C.3	1	LIG	0.0020
6	C6    -1.2026    -1.7220     0.2913	C.2	1	LIG	-0.0608
7	C7    -1.7973    -0.9103     1.3037	C.2	1	LIG	-0.0456
8	C8    -1.2117    -0.6868     2.6572	C.3	1	LIG	0.0020
9	C9    -3.0253    -0.2658     1.0318	C.2	1	LIG	-0.0766
10	C10     0.0528    -2.3716     0.5404	C.2	1	LIG	0.0001
11	C11     1.2724    -1.6543     0.3888	C.2	1	LIG	0.0807
12	C12     1.2934    -0.2971    -0.0438	C.2	1	LIG	-0.0087
13	C13     2.4852     0.4390    -0.0947	C.2	1	LIG	-0.0029
14	C14     3.6847    -0.1646     0.2898	C.2	1	LIG	-0.0257
15	C15     3.6902    -1.5077     0.6910	C.2	1	LIG	0.0354
16	C16     2.5075    -2.3066     0.7046	C.2	1	LIG	-0.0034
17	N1     2.5228    -3.6551     1.0319	N.2	1	LIG	-0.1101
18	C17     3.7859    -4.3962     1.0632	C.3	1	LIG	0.1669
19	C18     1.3370    -4.3224     1.3065	C.2	1	LIG	-0.0034
20	C19     1.3096    -5.6245     1.8897	C.2	1	LIG	0.0354
21	C20     0.1189    -6.3373     2.0860	C.2	1	LIG	-0.0257
22	C21    -1.1019    -5.7516     1.7467	C.2	1	LIG	-0.0029
23	C22    -1.1216    -4.4463     1.2400	C.2	1	LIG	-0.0087
24	C23     0.0772    -3.7086     1.0216	C.2	1	LIG	0.0807
25	H1    -5.4935     0.4435     0.4935	H	1	LIG	0.0279
26	H2    -4.8574     1.1225    -1.0239	H	1	LIG	0.0279
27	H3    -5.6425    -0.4750    -1.0239	H	1	LIG	0.0279
28	H4    -3.6233    -1.3947    -2.1256	H	1	LIG	0.0628
29	H5    -1.3979    -3.7676    -1.8263	H	1	LIG	0.0280
30	H6    -1.7807    -2.4821    -2.9965	H	1	LIG	0.0280
31	H7    -0.2116    -2.4821    -2.1561	H	1	LIG	0.0280
32	H8    -1.0079    -1.6485     3.1282	H	1	LIG	0.0280
33	H9    -0.2828    -0.1244     2.5629	H	1	LIG	0.0280
34	H10    -1.9165    -0.1244     3.2696	H	1	LIG	0.0280
35	H11    -3.4655     0.3832     1.7889	H	1	LIG	0.0628
36	H12     0.3681     0.1937    -0.3454	H	1	LIG	0.0631
37	H13     2.4791     1.4756    -0.4317	H	1	LIG	0.0622
38	H14     4.6113     0.4092     0.2769	H	1	LIG	0.0625
39	H15     4.6403    -1.9429     1.0010	H	1	LIG	0.0688
40	H16     4.0803    -4.5688     2.0985	H	1	LIG	0.0879
41	H17     3.6584    -5.3532     0.5573	H	1	LIG	0.0879
42	H18     4.5591    -3.8179     0.5573	H	1	LIG	0.0879
43	H19     2.2418    -6.0966     2.1999	H	1	LIG	0.0688
44	H20     0.1422    -7.3447     2.5014	H	1	LIG	0.0625
45	H21    -2.0303    -6.3079     1.8761	H	1	LIG	0.0622
46	H22    -2.0877    -3.9962     1.0115	H	1	LIG	0.0631
@<TRIPOS>BOND
1	1	2	1
2	2	3	2
3	3	4	1
4	4	5	1
5	4	6	2
6	6	7	1
7	7	8	1
8	7	9	2
9	2	9	1
10	6	10	1
11	10	11	2
12	11	12	1
13	12	13	2
14	13	14	1
15	14	15	2
16	15	16	1
17	11	16	1
18	16	17	2
19	17	18	1
20	17	19	1
21	19	20	2
22	20	21	1
23	21	22	2
24	22	23	1
25	23	24	2
26	10	24	1
27	19	24	1
28	1	25	1
29	1	26	1
30	1	27	1
31	3	28	1
32	5	29	1
33	5	30	1
34	5	31	1
35	8	32	1
36	8	33	1
37	8	34	1
38	9	35	1
39	12	36	1
40	13	37	1
41	14	38	1
42	15	39	1
43	18	40	1
44	18	41	1
45	18	42	1
46	20	43	1
47	21	44	1
48	22	45	1
49	23	46	1
@<TRIPOS>SUBSTRUCTURE
1	LIG	1
