REMARK SMILES Cc1cc(C)c(-c2c3ccccc3[n+](C)c3ccccc23)c(C)c1
REMARK SMILES IDX 7 1 8 2 9 3 10 4 11 5 12 6 13 7 14 8 15 9 16 10 17 11 18 12
REMARK SMILES IDX 19 13 20 14 21 15 6 16 1 17 2 18 3 19 24 20 4 21 22 22 5 23
REMARK SMILES IDX 23 24
REMARK H PARENT
REMARK Flexibility Score: inf
ROOT
ATOM      1  C   UNL     1       0.053  -2.372   0.540  1.00  0.00     0.010 A 
ATOM      2  C   UNL     1       1.272  -1.654   0.389  1.00  0.00     0.055 A 
ATOM      3  C   UNL     1       1.293  -0.297  -0.044  1.00  0.00     0.016 A 
ATOM      4  C   UNL     1       2.485   0.439  -0.095  1.00  0.00     0.001 A 
ATOM      5  C   UNL     1       3.685  -0.165   0.290  1.00  0.00     0.007 A 
ATOM      6  C   UNL     1       3.690  -1.508   0.691  1.00  0.00     0.080 A 
ATOM      7  C   UNL     1       2.507  -2.307   0.705  1.00  0.00     0.213 A 
ATOM      8  N   UNL     1       2.523  -3.655   1.032  1.00  0.00    -0.194 N 
ATOM      9  C   UNL     1       3.786  -4.396   1.063  1.00  0.00     0.441 C 
ATOM     10  C   UNL     1       1.337  -4.322   1.306  1.00  0.00     0.213 A 
ATOM     11  C   UNL     1       1.310  -5.625   1.890  1.00  0.00     0.080 A 
ATOM     12  C   UNL     1       0.119  -6.337   2.086  1.00  0.00     0.007 A 
ATOM     13  C   UNL     1      -1.102  -5.752   1.747  1.00  0.00     0.001 A 
ATOM     14  C   UNL     1      -1.122  -4.446   1.240  1.00  0.00     0.016 A 
ATOM     15  C   UNL     1       0.077  -3.709   1.022  1.00  0.00     0.055 A 
ENDROOT
BRANCH   1  16
ATOM     16  C   UNL     1      -1.203  -1.722   0.291  1.00  0.00    -0.011 A 
ATOM     17  C   UNL     1      -5.010   0.206  -0.454  1.00  0.00     0.044 C 
ATOM     18  C   UNL     1      -3.699  -0.438  -0.193  1.00  0.00    -0.051 A 
ATOM     19  C   UNL     1      -3.106  -1.253  -1.177  1.00  0.00     0.007 A 
ATOM     20  C   UNL     1      -3.025  -0.266   1.032  1.00  0.00     0.007 A 
ATOM     21  C   UNL     1      -1.860  -1.888  -0.964  1.00  0.00    -0.043 A 
ATOM     22  C   UNL     1      -1.797  -0.910   1.304  1.00  0.00    -0.043 A 
ATOM     23  C   UNL     1      -1.273  -2.710  -2.059  1.00  0.00     0.045 C 
ATOM     24  C   UNL     1      -1.212  -0.687   2.657  1.00  0.00     0.045 C 
ENDBRANCH   1  16
TORSDOF 1
